/*--------------------------------*- C++ -*----------------------------------*\
| =========                 |                                                 |
| \\      /  F ield         | OpenFOAM: The Open Source CFD Toolbox           |
|  \\    /   O peration     | Version:  2.4.0                                 |
|   \\  /    A nd           | Web:      www.OpenFOAM.org                      |
|    \\/     M anipulation  |                                                 |
\*---------------------------------------------------------------------------*/
FoamFile
{
    version     2.0;
    format      ascii;
    class       dictionary;
    object      blockMeshDict;
}
// * * * * * * * * * * * * * * * * * * * * * * * * * * * * * * * * * * * * * //

convertToMeters 1;

vertices
(
    (0 0 0) // 0
	(0.00015 0.00015 0) // 1
	(0.00045 0.00015 0) // 2
	(0.00075 0.00015 0) // 3
	(0.0009 0 0) // 4
	
	(0 0.0004 0) // 5
	(0.00015 0.0004 0) // 6
	(0.00045 0.0004 0) // 7
	(0.00075 0.0004 0) // 8	
	(0.0009 0.0004 0) // 9
	
	(0 0 0.0001) // 10
	(0.00015 0.00015 0.0001) // 11
	(0.00045 0.00015 0.0001) // 12	
	(0.00075 0.00015 0.0001) // 13
	(0.0009 0 0.0001) // 14
	
	(0 0.0004 0.0001) // 15
	(0.00015 0.0004 0.0001) // 16
	(0.00045 0.0004 0.0001) // 17
	(0.00075 0.0004 0.0001) // 18
	(0.0009 0.0004 0.0001) // 19
);

blocks
(
    hex (0 1 6 5 10 11 16 15) (15 80 1) simpleGrading (1 1 1)
    hex (1 2 7 6 11 12 17 16) (30 80 1) simpleGrading (1 1 1)
    hex (2 3 8 7 12 13 18 17) (30 80 1) simpleGrading (1 1 1)
    hex (3 4 9 8 13 14 19 18) (15 80 1) simpleGrading (1 1 1)
);

edges
(
	arc 0 1 (1.299038106e-4 .000075 0)
	arc 1 2 (0.0003 0 0)
	arc 2 3 (0.0006 0 0)
	arc 3 4 (7.700961894e-4 0.000075 0)
	
	arc 10 11 (1.299038106e-4 .000075 0.0001)
	arc 11 12 (0.0003 0 0.0001)
	arc 12 13 (0.0006 0 0.0001)
	arc 13 14 (7.700961894e-4 0.000075 0.0001)

);

boundary
(
    movingWall
    {
        type patches;
        faces
        (
            (5 15 16 6)
            (6 16 17 7)
            (7 17 18 8)
            (8 18 19 9)
        );
    }
    Inlet
    {
        type cyclic;
        neighbourPatch Outlet;
        faces
        (
            (0 10 15 5)
        );
    }
    Outlet
    {
        type cyclic;
        neighbourPatch Inlet;
        faces
        (
            (4 9 19 14)
        );
    }
    Bottom
    {
        type wall;
        faces
        (
            (0 1 11 10)
           (1 2 12 11)
           (2 3 13 12)
           (3 4 14 13)
        );
    }
    frontAndBack
    {
        type empty;
        faces
        (
            (10 11 16 15)
            (11 12 17 16)
            (12 13 18 17)
            (13 14 19 18)
            (1 0 5 6)
            (2 1 6 7)
            (3 2 7 8)
            (4 3 8 9)
        );
    }
);

mergePatchPairs
(
);

// ************************************************************************* //
