/*--------------------------------*- C++ -*----------------------------------*\
| =========                 |                                                 |
| \\      /  F ield         | OpenFOAM: The Open Source CFD Toolbox           |
|  \\    /   O peration     | Version:  2.4.0                                 |
|   \\  /    A nd           | Web:      www.OpenFOAM.org                      |
|    \\/     M anipulation  |                                                 |
\*---------------------------------------------------------------------------*/
FoamFile
{
    version     2.0;
    format      ascii;
    class       dictionary;
    location    "system";
    object      fvSchemes;
}
// * * * * * * * * * * * * * * * * * * * * * * * * * * * * * * * * * * * * * //

ddtSchemes
{
    default         Euler;
}

gradSchemes
{
    default         Gauss linear;
    grad(p)         Gauss linear;
    grad(U)         Gauss linear;
}

divSchemes
{
    default         none;
    div(phi,U)      Gauss linear;
    div(phi,k)      Gauss linear;
    div(phi,epsilon) Gauss linear;
    div(phi,R)      Gauss linear;
    div(R)          Gauss linear;
    div(phi,nuTilda) Gauss linear;
    div((nuEff*dev2(T(grad(U))))) Gauss linear;
    div(UcrosB) Gauss linear;
    div(phi,T) Gauss linear;

}

laplacianSchemes
{
    default         Gauss linear corrected;
    laplacian(nuEff,U) Gauss linear corrected;
    laplacian(rAUf,p)  Gauss linear corrected;
    laplacian(DkEff,k) Gauss linear corrected;
    laplacian(DepsilonEff,epsilon) Gauss linear corrected;
    laplacian(DREff,R) Gauss linear corrected;
    laplacian(DnuTildaEff,nuTilda) Gauss linear corrected;
    laplacian(nu,U)  Gauss linear corrected;
    laplacian(epo)  Gauss linear corrected;
    laplacian(alpha,T) Gauss linear corrected;
}

interpolationSchemes
{
    default         linear;
    interpolate(U)  linear;
}

snGradSchemes
{
    default         corrected;
}

fluxRequired
{
    default         no;
    p               ;
    p_rgh           ;
}


// ************************************************************************* //
