/*--------------------------------*- C++ -*----------------------------------*\
| =========                 |                                                 |
| \\      /  F ield         | OpenFOAM: The Open Source CFD Toolbox           |
|  \\    /   O peration     | Version:  2.4.0                                 |
|   \\  /    A nd           | Web:      www.OpenFOAM.org                      |
|    \\/     M anipulation  |                                                 |
\*---------------------------------------------------------------------------*/
FoamFile
{
    version     2.0;
    format      ascii;
    class       polyBoundaryMesh;
    location    "constant/polyMesh";
    object      boundary;
}
// * * * * * * * * * * * * * * * * * * * * * * * * * * * * * * * * * * * * * //

5
(
    INLET
    {
        type            patch;
        nFaces          79;
        startFace       63035;
    }
    OUTLET
    {
        type            patch;
        nFaces          79;
        startFace       63114;
    }
    TOP
    {
        type            wall;
        inGroups        1(wall);
        nFaces          402;
        startFace       63193;
    }
    BOT
    {
        type            wall;
        inGroups        1(wall);
        nFaces          402;
        startFace       63595;
    }
    frontAndBackPlanes
    {
        type            empty;
        inGroups        1(empty);
        nFaces          63516;
        startFace       63997;
    }
)

// ************************************************************************* //
