/*--------------------------------*- C++ -*----------------------------------*\
| =========                 |                                                 |
| \\      /  F ield         | OpenFOAM: The Open Source CFD Toolbox           |
|  \\    /   O peration     | Version:  2.4.0                                 |
|   \\  /    A nd           | Web:      www.OpenFOAM.org                      |
|    \\/     M anipulation  |                                                 |
\*---------------------------------------------------------------------------*/
FoamFile
{
    version     2.0;
    format      ascii;
    class       dictionary;
    object      blockMeshDict;
}
// * * * * * * * * * * * * * * * * * * * * * * * * * * * * * * * * * * * * * //

convertToMeters 1;

vertices
(
        (-1 0 0) // 0
	(0 0 0) // 1
	(1 0 0) // 2
	(2 0 0) // 3
	(-1 0.004 0) // 4
	(0 0.004 0) // 5
	(1 0.004 0) // 6
	(2 0.004 0) // 7
	(-1 0 1) // 8
	(0 0 1) // 9
	(1 0 1) // 10
	(2 0 1) // 11
	(-1 0.004 1) // 12
	(0 0.004 1) // 13
	(1 0.004 1) // 14
	(2 0.004 1) // 15
);

blocks
(
    hex (0 1 5 4 8 9 13 12) (20 100 1) simpleGrading (0.1 10 1)
    hex (1 2 6 5 9 10 14 13) (80 100 1) simpleGrading (1 10 1)
    hex (2 3 7 6 10 11 15 14) (20 100 1) simpleGrading (10 10 1)
);

edges
(
	 arc 1 2 (0.5 0.00015 0)
          
	 arc 9 10 (0.5 0.00015 1)
            

       );

boundary
(
    movingWall
    {
        type patches;
        faces
        (
            (4 12 13 5)
            (5 13 14 6)
            (6 14 15 7)
        );
    }
    Inlet
    {
        type patch;
        faces
        (
            (0 8 12 4)
            //(2 6 5 1)
          //  (1 5 4 0)
        );
    }
    Outlet
    {
        type patch;
        faces
        (
           // (0 4 7 3)
            (3 7 15 11)
          //  (1 5 4 0)
        );
    }
    Bottom
    {
        type wall;
        faces
        (
            //(0 4 7 3)
           // (2 6 5 1)
            (0 1 9 8)
           (1 2 10 9)
           (2 3 11 10)
        );
    }
    frontAndBack
    {
        type empty;
        faces
        (
            (8 9 13 12)
            (9 10 14 13)
            (10 11 15 14)
            (1 0 4 5)
            (2 1 5 6)
            (3 2 6 7)
        );
    }
);

mergePatchPairs
(
);

// ************************************************************************* //
